FoamFile
{
    version     2.0;
    format      ascii;
    class       dictionary;
    object      blockMeshDict;
}

convertToMeters 0.01;

vertices
(
    (0.04035 0.04035 0)   // point 0
    (0.04035 21.49095 0)   // point 1
    (21.49095 0.04035 0) // point 2
    (21.49095 21.49095 0) // point 3
    (0.04035 0.04035 200.5613)   // point 4
    (0.04035 21.49095 200.5613)   // point 5
    (21.49095 0.04035 200.5613) // point 6
    (21.49095 21.49095 200.5613) // point 7
);

blocks
(
    hex (0 2 3 1 4 6 7 5) (34 34 48) simpleGrading (1 1 1)
);

edges ( );
boundary
(
    inlet
    {
        type patch;
        faces ((0 2 3 1));
    }
    outlet
    {
        type patch;
        faces ((4 6 7 5));
    }
    walls
    {
        type wall;
        faces ((0 1 5 4)(2 3 7 6)(1 3 7 5)(0 2 6 4));
    }
);
mergePatchPairs ( );