FoamFile{version 2.0; format ascii; class dictionary; object fvSolution;}
solvers
{
    "(p|p_rgh)"
    {
        solver          GAMG;
        tolerance       1e-7;
        relTol          0.1;
        smoother        GaussSeidel;
    }
    "(U|h|T|k|epsilon)"
    {
        solver          smoothSolver;
        smoother        symGaussSeidel;
        tolerance       1e-7;
        relTol          0.1;
    }
}
PIMPLE { nOuterCorrectors 1; nCorrectors 2; nNonOrthogonalCorrectors 1; }
relaxationFactors { }
