FoamFile
{
    version     2.0;
    format      ascii;
    class       dictionary;
    object      topoSetDict;
}

actions
(
  {
    name    fuel_0_0_cells;
    type    cellSet;
    action  new;
    source  cylinderToCell;
    sourceInfo
    {
      p1      (0 .00671250000000000000 .00671250000000000000);
      p2      (1.0 .00671250000000000000 .00671250000000000000);
      radius  .004757;
    }
  }
  {
    name    fuel_0_0;
    type    cellZoneSet;
    action  new;
    source  setToCellZone;
    sourceInfo
    {
      set fuel_0_0_cells;
    }
  }
  {
    name    fuel_0_1_cells;
    type    cellSet;
    action  new;
    source  cylinderToCell;
    sourceInfo
    {
      p1      (0 .00671250000000000000 .01933050000000000000);
      p2      (1.0 .00671250000000000000 .01933050000000000000);
      radius  .004757;
    }
  }
  {
    name    fuel_0_1;
    type    cellZoneSet;
    action  new;
    source  setToCellZone;
    sourceInfo
    {
      set fuel_0_1_cells;
    }
  }
  {
    name    fuel_0_2_cells;
    type    cellSet;
    action  new;
    source  cylinderToCell;
    sourceInfo
    {
      p1      (0 .00671250000000000000 .03194850000000000000);
      p2      (1.0 .00671250000000000000 .03194850000000000000);
      radius  .004757;
    }
  }
  {
    name    fuel_0_2;
    type    cellZoneSet;
    action  new;
    source  setToCellZone;
    sourceInfo
    {
      set fuel_0_2_cells;
    }
  }
  {
    name    fuel_0_3_cells;
    type    cellSet;
    action  new;
    source  cylinderToCell;
    sourceInfo
    {
      p1      (0 .00671250000000000000 .04456650000000000000);
      p2      (1.0 .00671250000000000000 .04456650000000000000);
      radius  .004757;
    }
  }
  {
    name    fuel_0_3;
    type    cellZoneSet;
    action  new;
    source  setToCellZone;
    sourceInfo
    {
      set fuel_0_3_cells;
    }
  }
  {
    name    fuel_0_4_cells;
    type    cellSet;
    action  new;
    source  cylinderToCell;
    sourceInfo
    {
      p1      (0 .00671250000000000000 .05718450000000000000);
      p2      (1.0 .00671250000000000000 .05718450000000000000);
      radius  .004757;
    }
  }
  {
    name    fuel_0_4;
    type    cellZoneSet;
    action  new;
    source  setToCellZone;
    sourceInfo
    {
      set fuel_0_4_cells;
    }
  }
  {
    name    fuel_0_5_cells;
    type    cellSet;
    action  new;
    source  cylinderToCell;
    sourceInfo
    {
      p1      (0 .00671250000000000000 .06980250000000000000);
      p2      (1.0 .00671250000000000000 .06980250000000000000);
      radius  .004757;
    }
  }
  {
    name    fuel_0_5;
    type    cellZoneSet;
    action  new;
    source  setToCellZone;
    sourceInfo
    {
      set fuel_0_5_cells;
    }
  }
  {
    name    fuel_0_6_cells;
    type    cellSet;
    action  new;
    source  cylinderToCell;
    sourceInfo
    {
      p1      (0 .00671250000000000000 .08242050000000000000);
      p2      (1.0 .00671250000000000000 .08242050000000000000);
      radius  .004757;
    }
  }
  {
    name    fuel_0_6;
    type    cellZoneSet;
    action  new;
    source  setToCellZone;
    sourceInfo
    {
      set fuel_0_6_cells;
    }
  }
  {
    name    fuel_0_7_cells;
    type    cellSet;
    action  new;
    source  cylinderToCell;
    sourceInfo
    {
      p1      (0 .00671250000000000000 .09503850000000000000);
      p2      (1.0 .00671250000000000000 .09503850000000000000);
      radius  .004757;
    }
  }
  {
    name    fuel_0_7;
    type    cellZoneSet;
    action  new;
    source  setToCellZone;
    sourceInfo
    {
      set fuel_0_7_cells;
    }
  }
  {
    name    fuel_0_8_cells;
    type    cellSet;
    action  new;
    source  cylinderToCell;
    sourceInfo
    {
      p1      (0 .00671250000000000000 .10765650000000000000);
      p2      (1.0 .00671250000000000000 .10765650000000000000);
      radius  .004757;
    }
  }
  {
    name    fuel_0_8;
    type    cellZoneSet;
    action  new;
    source  setToCellZone;
    sourceInfo
    {
      set fuel_0_8_cells;
    }
  }
  {
    name    fuel_0_9_cells;
    type    cellSet;
    action  new;
    source  cylinderToCell;
    sourceInfo
    {
      p1      (0 .00671250000000000000 .12027450000000000000);
      p2      (1.0 .00671250000000000000 .12027450000000000000);
      radius  .004757;
    }
  }
  {
    name    fuel_0_9;
    type    cellZoneSet;
    action  new;
    source  setToCellZone;
    sourceInfo
    {
      set fuel_0_9_cells;
    }
  }
  {
    name    fuel_0_10_cells;
    type    cellSet;
    action  new;
    source  cylinderToCell;
    sourceInfo
    {
      p1      (0 .00671250000000000000 .13289250000000000000);
      p2      (1.0 .00671250000000000000 .13289250000000000000);
      radius  .004757;
    }
  }
  {
    name    fuel_0_10;
    type    cellZoneSet;
    action  new;
    source  setToCellZone;
    sourceInfo
    {
      set fuel_0_10_cells;
    }
  }
  {
    name    fuel_0_11_cells;
    type    cellSet;
    action  new;
    source  cylinderToCell;
    sourceInfo
    {
      p1      (0 .00671250000000000000 .14551050000000000000);
      p2      (1.0 .00671250000000000000 .14551050000000000000);
      radius  .004757;
    }
  }
  {
    name    fuel_0_11;
    type    cellZoneSet;
    action  new;
    source  setToCellZone;
    sourceInfo
    {
      set fuel_0_11_cells;
    }
  }
  {
    name    fuel_0_12_cells;
    type    cellSet;
    action  new;
    source  cylinderToCell;
    sourceInfo
    {
      p1      (0 .00671250000000000000 .15812850000000000000);
      p2      (1.0 .00671250000000000000 .15812850000000000000);
      radius  .004757;
    }
  }
  {
    name    fuel_0_12;
    type    cellZoneSet;
    action  new;
    source  setToCellZone;
    sourceInfo
    {
      set fuel_0_12_cells;
    }
  }
  {
    name    fuel_0_13_cells;
    type    cellSet;
    action  new;
    source  cylinderToCell;
    sourceInfo
    {
      p1      (0 .00671250000000000000 .17074650000000000000);
      p2      (1.0 .00671250000000000000 .17074650000000000000);
      radius  .004757;
    }
  }
  {
    name    fuel_0_13;
    type    cellZoneSet;
    action  new;
    source  setToCellZone;
    sourceInfo
    {
      set fuel_0_13_cells;
    }
  }
  {
    name    fuel_0_14_cells;
    type    cellSet;
    action  new;
    source  cylinderToCell;
    sourceInfo
    {
      p1      (0 .00671250000000000000 .18336450000000000000);
      p2      (1.0 .00671250000000000000 .18336450000000000000);
      radius  .004757;
    }
  }
  {
    name    fuel_0_14;
    type    cellZoneSet;
    action  new;
    source  setToCellZone;
    sourceInfo
    {
      set fuel_0_14_cells;
    }
  }
  {
    name    fuel_0_15_cells;
    type    cellSet;
    action  new;
    source  cylinderToCell;
    sourceInfo
    {
      p1      (0 .00671250000000000000 .19598250000000000000);
      p2      (1.0 .00671250000000000000 .19598250000000000000);
      radius  .004757;
    }
  }
  {
    name    fuel_0_15;
    type    cellZoneSet;
    action  new;
    source  setToCellZone;
    sourceInfo
    {
      set fuel_0_15_cells;
    }
  }
  {
    name    fuel_0_16_cells;
    type    cellSet;
    action  new;
    source  cylinderToCell;
    sourceInfo
    {
      p1      (0 .00671250000000000000 .20860050000000000000);
      p2      (1.0 .00671250000000000000 .20860050000000000000);
      radius  .004757;
    }
  }
  {
    name    fuel_0_16;
    type    cellZoneSet;
    action  new;
    source  setToCellZone;
    sourceInfo
    {
      set fuel_0_16_cells;
    }
  }
  {
    name    fuel_1_0_cells;
    type    cellSet;
    action  new;
    source  cylinderToCell;
    sourceInfo
    {
      p1      (0 .01933050000000000000 .00671250000000000000);
      p2      (1.0 .01933050000000000000 .00671250000000000000);
      radius  .004757;
    }
  }
  {
    name    fuel_1_0;
    type    cellZoneSet;
    action  new;
    source  setToCellZone;
    sourceInfo
    {
      set fuel_1_0_cells;
    }
  }
  {
    name    fuel_1_1_cells;
    type    cellSet;
    action  new;
    source  cylinderToCell;
    sourceInfo
    {
      p1      (0 .01933050000000000000 .01933050000000000000);
      p2      (1.0 .01933050000000000000 .01933050000000000000);
      radius  .004757;
    }
  }
  {
    name    fuel_1_1;
    type    cellZoneSet;
    action  new;
    source  setToCellZone;
    sourceInfo
    {
      set fuel_1_1_cells;
    }
  }
  {
    name    fuel_1_2_cells;
    type    cellSet;
    action  new;
    source  cylinderToCell;
    sourceInfo
    {
      p1      (0 .01933050000000000000 .03194850000000000000);
      p2      (1.0 .01933050000000000000 .03194850000000000000);
      radius  .004757;
    }
  }
  {
    name    fuel_1_2;
    type    cellZoneSet;
    action  new;
    source  setToCellZone;
    sourceInfo
    {
      set fuel_1_2_cells;
    }
  }
  {
    name    fuel_1_3_cells;
    type    cellSet;
    action  new;
    source  cylinderToCell;
    sourceInfo
    {
      p1      (0 .01933050000000000000 .04456650000000000000);
      p2      (1.0 .01933050000000000000 .04456650000000000000);
      radius  .004757;
    }
  }
  {
    name    fuel_1_3;
    type    cellZoneSet;
    action  new;
    source  setToCellZone;
    sourceInfo
    {
      set fuel_1_3_cells;
    }
  }
  {
    name    fuel_1_4_cells;
    type    cellSet;
    action  new;
    source  cylinderToCell;
    sourceInfo
    {
      p1      (0 .01933050000000000000 .05718450000000000000);
      p2      (1.0 .01933050000000000000 .05718450000000000000);
      radius  .004757;
    }
  }
  {
    name    fuel_1_4;
    type    cellZoneSet;
    action  new;
    source  setToCellZone;
    sourceInfo
    {
      set fuel_1_4_cells;
    }
  }
  {
    name    fuel_1_5_cells;
    type    cellSet;
    action  new;
    source  cylinderToCell;
    sourceInfo
    {
      p1      (0 .01933050000000000000 .06980250000000000000);
      p2      (1.0 .01933050000000000000 .06980250000000000000);
      radius  .004757;
    }
  }
  {
    name    fuel_1_5;
    type    cellZoneSet;
    action  new;
    source  setToCellZone;
    sourceInfo
    {
      set fuel_1_5_cells;
    }
  }
  {
    name    fuel_1_6_cells;
    type    cellSet;
    action  new;
    source  cylinderToCell;
    sourceInfo
    {
      p1      (0 .01933050000000000000 .08242050000000000000);
      p2      (1.0 .01933050000000000000 .08242050000000000000);
      radius  .004757;
    }
  }
  {
    name    fuel_1_6;
    type    cellZoneSet;
    action  new;
    source  setToCellZone;
    sourceInfo
    {
      set fuel_1_6_cells;
    }
  }
  {
    name    fuel_1_7_cells;
    type    cellSet;
    action  new;
    source  cylinderToCell;
    sourceInfo
    {
      p1      (0 .01933050000000000000 .09503850000000000000);
      p2      (1.0 .01933050000000000000 .09503850000000000000);
      radius  .004757;
    }
  }
  {
    name    fuel_1_7;
    type    cellZoneSet;
    action  new;
    source  setToCellZone;
    sourceInfo
    {
      set fuel_1_7_cells;
    }
  }
  {
    name    fuel_1_8_cells;
    type    cellSet;
    action  new;
    source  cylinderToCell;
    sourceInfo
    {
      p1      (0 .01933050000000000000 .10765650000000000000);
      p2      (1.0 .01933050000000000000 .10765650000000000000);
      radius  .004757;
    }
  }
  {
    name    fuel_1_8;
    type    cellZoneSet;
    action  new;
    source  setToCellZone;
    sourceInfo
    {
      set fuel_1_8_cells;
    }
  }
  {
    name    fuel_1_9_cells;
    type    cellSet;
    action  new;
    source  cylinderToCell;
    sourceInfo
    {
      p1      (0 .01933050000000000000 .12027450000000000000);
      p2      (1.0 .01933050000000000000 .12027450000000000000);
      radius  .004757;
    }
  }
  {
    name    fuel_1_9;
    type    cellZoneSet;
    action  new;
    source  setToCellZone;
    sourceInfo
    {
      set fuel_1_9_cells;
    }
  }
  {
    name    fuel_1_10_cells;
    type    cellSet;
    action  new;
    source  cylinderToCell;
    sourceInfo
    {
      p1      (0 .01933050000000000000 .13289250000000000000);
      p2      (1.0 .01933050000000000000 .13289250000000000000);
      radius  .004757;
    }
  }
  {
    name    fuel_1_10;
    type    cellZoneSet;
    action  new;
    source  setToCellZone;
    sourceInfo
    {
      set fuel_1_10_cells;
    }
  }
  {
    name    fuel_1_11_cells;
    type    cellSet;
    action  new;
    source  cylinderToCell;
    sourceInfo
    {
      p1      (0 .01933050000000000000 .14551050000000000000);
      p2      (1.0 .01933050000000000000 .14551050000000000000);
      radius  .004757;
    }
  }
  {
    name    fuel_1_11;
    type    cellZoneSet;
    action  new;
    source  setToCellZone;
    sourceInfo
    {
      set fuel_1_11_cells;
    }
  }
  {
    name    fuel_1_12_cells;
    type    cellSet;
    action  new;
    source  cylinderToCell;
    sourceInfo
    {
      p1      (0 .01933050000000000000 .15812850000000000000);
      p2      (1.0 .01933050000000000000 .15812850000000000000);
      radius  .004757;
    }
  }
  {
    name    fuel_1_12;
    type    cellZoneSet;
    action  new;
    source  setToCellZone;
    sourceInfo
    {
      set fuel_1_12_cells;
    }
  }
  {
    name    fuel_1_13_cells;
    type    cellSet;
    action  new;
    source  cylinderToCell;
    sourceInfo
    {
      p1      (0 .01933050000000000000 .17074650000000000000);
      p2      (1.0 .01933050000000000000 .17074650000000000000);
      radius  .004757;
    }
  }
  {
    name    fuel_1_13;
    type    cellZoneSet;
    action  new;
    source  setToCellZone;
    sourceInfo
    {
      set fuel_1_13_cells;
    }
  }
  {
    name    fuel_1_14_cells;
    type    cellSet;
    action  new;
    source  cylinderToCell;
    sourceInfo
    {
      p1      (0 .01933050000000000000 .18336450000000000000);
      p2      (1.0 .01933050000000000000 .18336450000000000000);
      radius  .004757;
    }
  }
  {
    name    fuel_1_14;
    type    cellZoneSet;
    action  new;
    source  setToCellZone;
    sourceInfo
    {
      set fuel_1_14_cells;
    }
  }
  {
    name    fuel_1_15_cells;
    type    cellSet;
    action  new;
    source  cylinderToCell;
    sourceInfo
    {
      p1      (0 .01933050000000000000 .19598250000000000000);
      p2      (1.0 .01933050000000000000 .19598250000000000000);
      radius  .004757;
    }
  }
  {
    name    fuel_1_15;
    type    cellZoneSet;
    action  new;
    source  setToCellZone;
    sourceInfo
    {
      set fuel_1_15_cells;
    }
  }
  {
    name    fuel_1_16_cells;
    type    cellSet;
    action  new;
    source  cylinderToCell;
    sourceInfo
    {
      p1      (0 .01933050000000000000 .20860050000000000000);
      p2      (1.0 .01933050000000000000 .20860050000000000000);
      radius  .004757;
    }
  }
  {
    name    fuel_1_16;
    type    cellZoneSet;
    action  new;
    source  setToCellZone;
    sourceInfo
    {
      set fuel_1_16_cells;
    }
  }
  {
    name    fuel_2_0_cells;
    type    cellSet;
    action  new;
    source  cylinderToCell;
    sourceInfo
    {
      p1      (0 .03194850000000000000 .00671250000000000000);
      p2      (1.0 .03194850000000000000 .00671250000000000000);
      radius  .004757;
    }
  }
  {
    name    fuel_2_0;
    type    cellZoneSet;
    action  new;
    source  setToCellZone;
    sourceInfo
    {
      set fuel_2_0_cells;
    }
  }
  {
    name    fuel_2_1_cells;
    type    cellSet;
    action  new;
    source  cylinderToCell;
    sourceInfo
    {
      p1      (0 .03194850000000000000 .01933050000000000000);
      p2      (1.0 .03194850000000000000 .01933050000000000000);
      radius  .004757;
    }
  }
  {
    name    fuel_2_1;
    type    cellZoneSet;
    action  new;
    source  setToCellZone;
    sourceInfo
    {
      set fuel_2_1_cells;
    }
  }
  {
    name    fuel_2_2_cells;
    type    cellSet;
    action  new;
    source  cylinderToCell;
    sourceInfo
    {
      p1      (0 .03194850000000000000 .03194850000000000000);
      p2      (1.0 .03194850000000000000 .03194850000000000000);
      radius  .004757;
    }
  }
  {
    name    fuel_2_2;
    type    cellZoneSet;
    action  new;
    source  setToCellZone;
    sourceInfo
    {
      set fuel_2_2_cells;
    }
  }
  {
    name    fuel_2_3_cells;
    type    cellSet;
    action  new;
    source  cylinderToCell;
    sourceInfo
    {
      p1      (0 .03194850000000000000 .04456650000000000000);
      p2      (1.0 .03194850000000000000 .04456650000000000000);
      radius  .004757;
    }
  }
  {
    name    fuel_2_3;
    type    cellZoneSet;
    action  new;
    source  setToCellZone;
    sourceInfo
    {
      set fuel_2_3_cells;
    }
  }
  {
    name    fuel_2_4_cells;
    type    cellSet;
    action  new;
    source  cylinderToCell;
    sourceInfo
    {
      p1      (0 .03194850000000000000 .05718450000000000000);
      p2      (1.0 .03194850000000000000 .05718450000000000000);
      radius  .004757;
    }
  }
  {
    name    fuel_2_4;
    type    cellZoneSet;
    action  new;
    source  setToCellZone;
    sourceInfo
    {
      set fuel_2_4_cells;
    }
  }
  {
    name    fuel_2_5_cells;
    type    cellSet;
    action  new;
    source  cylinderToCell;
    sourceInfo
    {
      p1      (0 .03194850000000000000 .06980250000000000000);
      p2      (1.0 .03194850000000000000 .06980250000000000000);
      radius  .004757;
    }
  }
  {
    name    fuel_2_5;
    type    cellZoneSet;
    action  new;
    source  setToCellZone;
    sourceInfo
    {
      set fuel_2_5_cells;
    }
  }
  {
    name    fuel_2_6_cells;
    type    cellSet;
    action  new;
    source  cylinderToCell;
    sourceInfo
    {
      p1      (0 .03194850000000000000 .08242050000000000000);
      p2      (1.0 .03194850000000000000 .08242050000000000000);
      radius  .004757;
    }
  }
  {
    name    fuel_2_6;
    type    cellZoneSet;
    action  new;
    source  setToCellZone;
    sourceInfo
    {
      set fuel_2_6_cells;
    }
  }
  {
    name    fuel_2_7_cells;
    type    cellSet;
    action  new;
    source  cylinderToCell;
    sourceInfo
    {
      p1      (0 .03194850000000000000 .09503850000000000000);
      p2      (1.0 .03194850000000000000 .09503850000000000000);
      radius  .004757;
    }
  }
  {
    name    fuel_2_7;
    type    cellZoneSet;
    action  new;
    source  setToCellZone;
    sourceInfo
    {
      set fuel_2_7_cells;
    }
  }
  {
    name    fuel_2_8_cells;
    type    cellSet;
    action  new;
    source  cylinderToCell;
    sourceInfo
    {
      p1      (0 .03194850000000000000 .10765650000000000000);
      p2      (1.0 .03194850000000000000 .10765650000000000000);
      radius  .004757;
    }
  }
  {
    name    fuel_2_8;
    type    cellZoneSet;
    action  new;
    source  setToCellZone;
    sourceInfo
    {
      set fuel_2_8_cells;
    }
  }
  {
    name    fuel_2_9_cells;
    type    cellSet;
    action  new;
    source  cylinderToCell;
    sourceInfo
    {
      p1      (0 .03194850000000000000 .12027450000000000000);
      p2      (1.0 .03194850000000000000 .12027450000000000000);
      radius  .004757;
    }
  }
  {
    name    fuel_2_9;
    type    cellZoneSet;
    action  new;
    source  setToCellZone;
    sourceInfo
    {
      set fuel_2_9_cells;
    }
  }
  {
    name    fuel_2_10_cells;
    type    cellSet;
    action  new;
    source  cylinderToCell;
    sourceInfo
    {
      p1      (0 .03194850000000000000 .13289250000000000000);
      p2      (1.0 .03194850000000000000 .13289250000000000000);
      radius  .004757;
    }
  }
  {
    name    fuel_2_10;
    type    cellZoneSet;
    action  new;
    source  setToCellZone;
    sourceInfo
    {
      set fuel_2_10_cells;
    }
  }
  {
    name    fuel_2_11_cells;
    type    cellSet;
    action  new;
    source  cylinderToCell;
    sourceInfo
    {
      p1      (0 .03194850000000000000 .14551050000000000000);
      p2      (1.0 .03194850000000000000 .14551050000000000000);
      radius  .004757;
    }
  }
  {
    name    fuel_2_11;
    type    cellZoneSet;
    action  new;
    source  setToCellZone;
    sourceInfo
    {
      set fuel_2_11_cells;
    }
  }
  {
    name    fuel_2_12_cells;
    type    cellSet;
    action  new;
    source  cylinderToCell;
    sourceInfo
    {
      p1      (0 .03194850000000000000 .15812850000000000000);
      p2      (1.0 .03194850000000000000 .15812850000000000000);
      radius  .004757;
    }
  }
  {
    name    fuel_2_12;
    type    cellZoneSet;
    action  new;
    source  setToCellZone;
    sourceInfo
    {
      set fuel_2_12_cells;
    }
  }
  {
    name    fuel_2_13_cells;
    type    cellSet;
    action  new;
    source  cylinderToCell;
    sourceInfo
    {
      p1      (0 .03194850000000000000 .17074650000000000000);
      p2      (1.0 .03194850000000000000 .17074650000000000000);
      radius  .004757;
    }
  }
  {
    name    fuel_2_13;
    type    cellZoneSet;
    action  new;
    source  setToCellZone;
    sourceInfo
    {
      set fuel_2_13_cells;
    }
  }
  {
    name    fuel_2_14_cells;
    type    cellSet;
    action  new;
    source  cylinderToCell;
    sourceInfo
    {
      p1      (0 .03194850000000000000 .18336450000000000000);
      p2      (1.0 .03194850000000000000 .18336450000000000000);
      radius  .004757;
    }
  }
  {
    name    fuel_2_14;
    type    cellZoneSet;
    action  new;
    source  setToCellZone;
    sourceInfo
    {
      set fuel_2_14_cells;
    }
  }
  {
    name    fuel_2_15_cells;
    type    cellSet;
    action  new;
    source  cylinderToCell;
    sourceInfo
    {
      p1      (0 .03194850000000000000 .19598250000000000000);
      p2      (1.0 .03194850000000000000 .19598250000000000000);
      radius  .004757;
    }
  }
  {
    name    fuel_2_15;
    type    cellZoneSet;
    action  new;
    source  setToCellZone;
    sourceInfo
    {
      set fuel_2_15_cells;
    }
  }
  {
    name    fuel_2_16_cells;
    type    cellSet;
    action  new;
    source  cylinderToCell;
    sourceInfo
    {
      p1      (0 .03194850000000000000 .20860050000000000000);
      p2      (1.0 .03194850000000000000 .20860050000000000000);
      radius  .004757;
    }
  }
  {
    name    fuel_2_16;
    type    cellZoneSet;
    action  new;
    source  setToCellZone;
    sourceInfo
    {
      set fuel_2_16_cells;
    }
  }
  {
    name    fuel_3_0_cells;
    type    cellSet;
    action  new;
    source  cylinderToCell;
    sourceInfo
    {
      p1      (0 .04456650000000000000 .00671250000000000000);
      p2      (1.0 .04456650000000000000 .00671250000000000000);
      radius  .004757;
    }
  }
  {
    name    fuel_3_0;
    type    cellZoneSet;
    action  new;
    source  setToCellZone;
    sourceInfo
    {
      set fuel_3_0_cells;
    }
  }
  {
    name    fuel_3_1_cells;
    type    cellSet;
    action  new;
    source  cylinderToCell;
    sourceInfo
    {
      p1      (0 .04456650000000000000 .01933050000000000000);
      p2      (1.0 .04456650000000000000 .01933050000000000000);
      radius  .004757;
    }
  }
  {
    name    fuel_3_1;
    type    cellZoneSet;
    action  new;
    source  setToCellZone;
    sourceInfo
    {
      set fuel_3_1_cells;
    }
  }
  {
    name    fuel_3_2_cells;
    type    cellSet;
    action  new;
    source  cylinderToCell;
    sourceInfo
    {
      p1      (0 .04456650000000000000 .03194850000000000000);
      p2      (1.0 .04456650000000000000 .03194850000000000000);
      radius  .004757;
    }
  }
  {
    name    fuel_3_2;
    type    cellZoneSet;
    action  new;
    source  setToCellZone;
    sourceInfo
    {
      set fuel_3_2_cells;
    }
  }
  {
    name    fuel_3_3_cells;
    type    cellSet;
    action  new;
    source  cylinderToCell;
    sourceInfo
    {
      p1      (0 .04456650000000000000 .04456650000000000000);
      p2      (1.0 .04456650000000000000 .04456650000000000000);
      radius  .004757;
    }
  }
  {
    name    fuel_3_3;
    type    cellZoneSet;
    action  new;
    source  setToCellZone;
    sourceInfo
    {
      set fuel_3_3_cells;
    }
  }
  {
    name    fuel_3_4_cells;
    type    cellSet;
    action  new;
    source  cylinderToCell;
    sourceInfo
    {
      p1      (0 .04456650000000000000 .05718450000000000000);
      p2      (1.0 .04456650000000000000 .05718450000000000000);
      radius  .004757;
    }
  }
  {
    name    fuel_3_4;
    type    cellZoneSet;
    action  new;
    source  setToCellZone;
    sourceInfo
    {
      set fuel_3_4_cells;
    }
  }
  {
    name    fuel_3_5_cells;
    type    cellSet;
    action  new;
    source  cylinderToCell;
    sourceInfo
    {
      p1      (0 .04456650000000000000 .06980250000000000000);
      p2      (1.0 .04456650000000000000 .06980250000000000000);
      radius  .004757;
    }
  }
  {
    name    fuel_3_5;
    type    cellZoneSet;
    action  new;
    source  setToCellZone;
    sourceInfo
    {
      set fuel_3_5_cells;
    }
  }
  {
    name    fuel_3_6_cells;
    type    cellSet;
    action  new;
    source  cylinderToCell;
    sourceInfo
    {
      p1      (0 .04456650000000000000 .08242050000000000000);
      p2      (1.0 .04456650000000000000 .08242050000000000000);
      radius  .004757;
    }
  }
  {
    name    fuel_3_6;
    type    cellZoneSet;
    action  new;
    source  setToCellZone;
    sourceInfo
    {
      set fuel_3_6_cells;
    }
  }
  {
    name    fuel_3_7_cells;
    type    cellSet;
    action  new;
    source  cylinderToCell;
    sourceInfo
    {
      p1      (0 .04456650000000000000 .09503850000000000000);
      p2      (1.0 .04456650000000000000 .09503850000000000000);
      radius  .004757;
    }
  }
  {
    name    fuel_3_7;
    type    cellZoneSet;
    action  new;
    source  setToCellZone;
    sourceInfo
    {
      set fuel_3_7_cells;
    }
  }
  {
    name    fuel_3_8_cells;
    type    cellSet;
    action  new;
    source  cylinderToCell;
    sourceInfo
    {
      p1      (0 .04456650000000000000 .10765650000000000000);
      p2      (1.0 .04456650000000000000 .10765650000000000000);
      radius  .004757;
    }
  }
  {
    name    fuel_3_8;
    type    cellZoneSet;
    action  new;
    source  setToCellZone;
    sourceInfo
    {
      set fuel_3_8_cells;
    }
  }
  {
    name    fuel_3_9_cells;
    type    cellSet;
    action  new;
    source  cylinderToCell;
    sourceInfo
    {
      p1      (0 .04456650000000000000 .12027450000000000000);
      p2      (1.0 .04456650000000000000 .12027450000000000000);
      radius  .004757;
    }
  }
  {
    name    fuel_3_9;
    type    cellZoneSet;
    action  new;
    source  setToCellZone;
    sourceInfo
    {
      set fuel_3_9_cells;
    }
  }
  {
    name    fuel_3_10_cells;
    type    cellSet;
    action  new;
    source  cylinderToCell;
    sourceInfo
    {
      p1      (0 .04456650000000000000 .13289250000000000000);
      p2      (1.0 .04456650000000000000 .13289250000000000000);
      radius  .004757;
    }
  }
  {
    name    fuel_3_10;
    type    cellZoneSet;
    action  new;
    source  setToCellZone;
    sourceInfo
    {
      set fuel_3_10_cells;
    }
  }
  {
    name    fuel_3_11_cells;
    type    cellSet;
    action  new;
    source  cylinderToCell;
    sourceInfo
    {
      p1      (0 .04456650000000000000 .14551050000000000000);
      p2      (1.0 .04456650000000000000 .14551050000000000000);
      radius  .004757;
    }
  }
  {
    name    fuel_3_11;
    type    cellZoneSet;
    action  new;
    source  setToCellZone;
    sourceInfo
    {
      set fuel_3_11_cells;
    }
  }
  {
    name    fuel_3_12_cells;
    type    cellSet;
    action  new;
    source  cylinderToCell;
    sourceInfo
    {
      p1      (0 .04456650000000000000 .15812850000000000000);
      p2      (1.0 .04456650000000000000 .15812850000000000000);
      radius  .004757;
    }
  }
  {
    name    fuel_3_12;
    type    cellZoneSet;
    action  new;
    source  setToCellZone;
    sourceInfo
    {
      set fuel_3_12_cells;
    }
  }
  {
    name    fuel_3_13_cells;
    type    cellSet;
    action  new;
    source  cylinderToCell;
    sourceInfo
    {
      p1      (0 .04456650000000000000 .17074650000000000000);
      p2      (1.0 .04456650000000000000 .17074650000000000000);
      radius  .004757;
    }
  }
  {
    name    fuel_3_13;
    type    cellZoneSet;
    action  new;
    source  setToCellZone;
    sourceInfo
    {
      set fuel_3_13_cells;
    }
  }
  {
    name    fuel_3_14_cells;
    type    cellSet;
    action  new;
    source  cylinderToCell;
    sourceInfo
    {
      p1      (0 .04456650000000000000 .18336450000000000000);
      p2      (1.0 .04456650000000000000 .18336450000000000000);
      radius  .004757;
    }
  }
  {
    name    fuel_3_14;
    type    cellZoneSet;
    action  new;
    source  setToCellZone;
    sourceInfo
    {
      set fuel_3_14_cells;
    }
  }
  {
    name    fuel_3_15_cells;
    type    cellSet;
    action  new;
    source  cylinderToCell;
    sourceInfo
    {
      p1      (0 .04456650000000000000 .19598250000000000000);
      p2      (1.0 .04456650000000000000 .19598250000000000000);
      radius  .004757;
    }
  }
  {
    name    fuel_3_15;
    type    cellZoneSet;
    action  new;
    source  setToCellZone;
    sourceInfo
    {
      set fuel_3_15_cells;
    }
  }
  {
    name    fuel_3_16_cells;
    type    cellSet;
    action  new;
    source  cylinderToCell;
    sourceInfo
    {
      p1      (0 .04456650000000000000 .20860050000000000000);
      p2      (1.0 .04456650000000000000 .20860050000000000000);
      radius  .004757;
    }
  }
  {
    name    fuel_3_16;
    type    cellZoneSet;
    action  new;
    source  setToCellZone;
    sourceInfo
    {
      set fuel_3_16_cells;
    }
  }
  {
    name    fuel_4_0_cells;
    type    cellSet;
    action  new;
    source  cylinderToCell;
    sourceInfo
    {
      p1      (0 .05718450000000000000 .00671250000000000000);
      p2      (1.0 .05718450000000000000 .00671250000000000000);
      radius  .004757;
    }
  }
  {
    name    fuel_4_0;
    type    cellZoneSet;
    action  new;
    source  setToCellZone;
    sourceInfo
    {